48   
From sugar-elem.mol2: Frame 1 / 1
H        4.1933210000    6.9754300000   -1.6206110000
C        3.2013860000    6.6579010000   -1.9246900000
H        2.5534440000    7.5079470000   -2.1112870000
H        2.7288480000    6.0495630000   -1.1605840000
O        3.3526980000    5.9112070000   -3.0980420000
C        2.0681970000    5.4304370000   -3.5985600000
H        1.4127150000    6.2750140000   -3.8160770000
O        1.3872450000    4.5699730000   -2.6264170000
C        0.0841770000    3.9968410000   -3.0831000000
H       -0.5942830000    4.8228550000   -3.3063830000
C       -0.5265990000    3.1522530000   -1.9480650000
H        0.1240080000    2.3082680000   -1.7142270000
H       -1.5015940000    2.7630990000   -2.2413990000
O       -0.6842490000    3.9620040000   -0.7677890000
H        0.1626130000    4.3725460000   -0.5684830000
C        0.2858980000    3.1758840000   -4.2796490000
H        0.8837140000    2.2993420000   -4.0212810000
C        1.0028290000    3.9762600000   -5.3939710000
H        0.3379330000    4.7652660000   -5.7515260000
O        1.2937510000    3.0804870000   -6.5017040000
H        1.8105290000    3.5795160000   -7.1490060000
C        2.3191060000    4.6143660000   -4.8967180000
H        3.0486930000    3.8280100000   -4.6922390000
O        2.8481670000    5.4841830000   -5.9404020000
H        3.6312980000    5.9288990000   -5.5909890000
O       -1.0029700000    2.7328370000   -4.7687640000
C       -0.8688300000    1.9067440000   -5.9650820000
H       -0.2682710000    1.0233700000   -5.7431370000
O       -0.2171350000    2.6315740000   -7.0641160000
C       -0.1479370000    1.9130140000   -8.3732790000
H        0.4430460000    1.0060260000   -8.2298410000
C        0.5734310000    2.7906400000   -9.4115090000
H        0.0699880000    3.7519490000   -9.5242550000
H        0.5910900000    2.2932350000  -10.3812390000
O        1.9250530000    3.0142520000   -8.9778200000
H        1.8912680000    3.4351960000   -8.1145790000
C       -1.4503940000    1.5469190000   -8.8528020000
H       -1.3479720000    0.9469220000   -9.7582270000
O       -2.2056790000    2.7402430000   -9.1770270000
H       -3.1071480000    2.4593720000   -9.3857240000
C       -2.2068490000    0.7283240000   -7.7814510000
H       -1.6710230000   -0.2112950000   -7.6315460000
O       -3.5359390000    0.4061010000   -8.2781580000
H       -4.0035950000   -0.0616460000   -7.5727510000
C       -2.2913000000    1.4718940000   -6.4275010000
H       -2.9285630000    2.3527120000   -6.5300590000
O       -2.8820620000    0.5769020000   -5.4382220000
H       -2.8649690000    1.0289240000   -4.5858090000
